G7P_2WF7_A
     RDKit          3D

 29 29  0  0  0  0  0  0  0  0999 V2000
    1.6043   -1.2830   -0.1399 C   0  0  2  0  0  0  0  0  0  0  0  0
    2.4462   -0.0485   -0.3275 C   0  0  1  0  0  0  0  0  0  0  0  0
    1.9714    0.9804    0.6578 C   0  0  2  0  0  0  0  0  0  0  0  0
    0.5351    1.2569    0.3570 C   0  0  1  0  0  0  0  0  0  0  0  0
   -0.2213   -0.0429    0.5126 C   0  0  1  0  0  0  0  0  0  0  0  0
   -1.6525    0.2483    0.0906 C   0  0  2  0  0  0  0  0  0  0  0  0
    1.9872   -2.2176   -1.0999 O   0  0  0  0  0  0  0  0  0  0  0  0
    3.8006   -0.3106   -0.2283 O   0  0  0  0  0  0  0  0  0  0  0  0
    2.7638    2.1106    0.6977 O   0  0  0  0  0  0  0  0  0  0  0  0
   -0.0224    2.2389    1.1507 O   0  0  0  0  0  0  0  0  0  0  0  0
    0.2624   -1.0111   -0.3606 O   0  0  0  0  0  0  0  0  0  0  0  0
   -2.5571   -0.9370    0.1805 C   0  0  1  0  0  0  0  0  0  0  0  0
   -4.2052   -0.3841   -0.3621 P   0  0  2  0  0  0  0  0  0  0  0  0
   -4.3534    1.0655    0.0084 O   0  0  0  0  0  0  0  0  0  0  0  0
   -5.3761   -1.3275    0.4215 O   0  0  0  0  0  0  0  0  0  0  0  0
   -4.2638   -0.6287   -2.0327 O   0  0  0  0  0  0  0  0  0  0  0  0
    1.8094   -1.7028    0.8483 H   0  0  0  0  0  0  0  0  0  0  0  0
    2.2736    0.3245   -1.3627 H   0  0  0  0  0  0  0  0  0  0  0  0
    2.0045    0.4933    1.6796 H   0  0  0  0  0  0  0  0  0  0  0  0
    0.3834    1.5555   -0.7146 H   0  0  0  0  0  0  0  0  0  0  0  0
   -0.2155   -0.3415    1.5696 H   0  0  0  0  0  0  0  0  0  0  0  0
   -1.6755    0.6333   -0.9521 H   0  0  0  0  0  0  0  0  0  0  0  0
   -2.0193    1.0305    0.7875 H   0  0  0  0  0  0  0  0  0  0  0  0
    1.8893   -3.1375   -0.7555 H   0  0  0  0  0  0  0  0  0  0  0  0
    4.0906   -0.5152    0.6743 H   0  0  0  0  0  0  0  0  0  0  0  0
    3.5114    1.9138    1.3453 H   0  0  0  0  0  0  0  0  0  0  0  0
   -0.0007    3.0956    0.6575 H   0  0  0  0  0  0  0  0  0  0  0  0
   -2.1771   -1.7897   -0.4038 H   0  0  0  0  0  0  0  0  0  0  0  0
   -2.5933   -1.2694    1.2563 H   0  0  0  0  0  0  0  0  0  0  0  0
  1  2  1  0
  1  7  1  0
  1 11  1  0
  2  3  1  0
  2  8  1  0
  3  4  1  0
  3  9  1  0
  4  5  1  0
  4 10  1  0
  5  6  1  0
  5 11  1  0
  6 12  1  0
 12 13  1  0
 13 14  2  0
 13 15  1  1
 13 16  1  0
  1 17  1  1
  2 18  1  6
  3 19  1  1
  4 20  1  6
  5 21  1  1
  6 22  1  6
  6 23  1  0
  7 24  1  0
  8 25  1  0
  9 26  1  0
 10 27  1  0
 12 28  1  1
 12 29  1  0
M  CHG  2  15  -1  16  -1
M  END
